Version 4
SHEET 1 1024 680
WIRE 16 -80 -176 -80
WIRE 176 -80 80 -80
WIRE 304 -80 176 -80
WIRE -176 -32 -176 -80
WIRE 176 -32 176 -80
WIRE -176 80 -176 48
WIRE 176 80 176 32
WIRE 176 80 -176 80
WIRE -176 128 -176 80
FLAG -176 128 0
FLAG -176 -80 in
FLAG 304 -80 out
SYMBOL voltage -176 -48 R0
WINDOW 123 0 0 Left 0
WINDOW 39 0 0 Left 0
SYMATTR InstName V1
SYMATTR Value SINE(0 10 1k)
SYMBOL diode 16 -64 R270
WINDOW 0 32 32 VTop 2
WINDOW 3 0 32 VBottom 2
SYMATTR InstName D1
SYMATTR Value 1N4148
SYMBOL cap 192 32 R180
WINDOW 0 24 56 Left 2
WINDOW 3 24 8 Left 2
SYMATTR InstName C1
SYMATTR Value 1e-6
TEXT -208 152 Left 2 !.tran 0 5m 0 .1m
